GuGrid_Power_seq_kVA.txt

SYMMETRICAL COMPONENT POWERS BY CIRCUIT ELEMENT (first 3 phases)                                     Excess Power

Element                Term    P1(kW)   Q1(kvar)       P2         Q2      P0      Q0       P_Norm      Q_Norm     P_Emerg    Q_Emerg

"Vsource.SOURCE"        1    -3270.3      318.9        0.0        0.0     0.0    -0.0
"Vsource.SOURCE"        2        0.0        0.0        0.0        0.0     0.0     0.0
"Transformer.TR1"       1     3270.3     -318.9       -0.0       -0.0     0.0     0.0     1554.1     -151.5      930.0      -90.7
"Transformer.TR1"       2    -3244.2      729.2        0.0        0.0     0.0     0.0
"Line.LINE1"            1      216.3      -48.6       -0.0       -0.0    -0.0    -0.0        0.0        0.0        0.0        0.0
"Line.LINE1"            2     -196.4       58.3        0.0        0.0     0.0     0.0
"Line.LINE2"            1      216.3      -48.6       -0.0       -0.0    -0.0    -0.0        0.0        0.0        0.0        0.0
"Line.LINE2"            2     -196.4       58.3        0.0        0.0     0.0     0.0
"Line.LINE3"            1      216.3      -48.6       -0.0       -0.0    -0.0    -0.0        0.0        0.0        0.0        0.0
"Line.LINE3"            2     -196.4       58.3        0.0        0.0     0.0     0.0
"Line.LINE4"            1      216.3      -48.6       -0.0       -0.0    -0.0    -0.0        0.0        0.0        0.0        0.0
"Line.LINE4"            2     -196.4       58.3        0.0        0.0     0.0     0.0
"Line.LINE5"            1      216.3      -48.6       -0.0       -0.0    -0.0    -0.0        0.0        0.0        0.0        0.0
"Line.LINE5"            2     -196.4       58.3        0.0        0.0     0.0     0.0
"Line.LINE6"            1      216.3      -48.6       -0.0       -0.0    -0.0    -0.0        0.0        0.0        0.0        0.0
"Line.LINE6"            2     -196.4       58.3        0.0        0.0     0.0     0.0
"Line.LINE7"            1      216.3      -48.6       -0.0       -0.0    -0.0    -0.0        0.0        0.0        0.0        0.0
"Line.LINE7"            2     -196.4       58.3        0.0        0.0     0.0     0.0
"Line.LINE8"            1      216.3      -48.6       -0.0       -0.0    -0.0    -0.0        0.0        0.0        0.0        0.0
"Line.LINE8"            2     -196.4       58.3        0.0        0.0     0.0     0.0
"Line.LINE9"            1      216.3      -48.6       -0.0       -0.0    -0.0    -0.0        0.0        0.0        0.0        0.0
"Line.LINE9"            2     -196.4       58.3        0.0        0.0     0.0     0.0
"Line.LINE10"           1      216.3      -48.6       -0.0       -0.0    -0.0    -0.0        0.0        0.0        0.0        0.0
"Line.LINE10"           2     -196.4       58.3        0.0        0.0     0.0     0.0
"Line.LINE11"           1      216.3      -48.6       -0.0       -0.0    -0.0    -0.0        0.0        0.0        0.0        0.0
"Line.LINE11"           2     -196.4       58.3        0.0        0.0     0.0     0.0
"Line.LINE12"           1      216.3      -48.6       -0.0       -0.0    -0.0    -0.0        0.0        0.0        0.0        0.0
"Line.LINE12"           2     -196.4       58.3        0.0        0.0     0.0     0.0
"Line.LINE13"           1      216.3      -48.6       -0.0       -0.0    -0.0    -0.0        0.0        0.0        0.0        0.0
"Line.LINE13"           2     -196.4       58.3        0.0        0.0     0.0     0.0
"Line.LINE14"           1      216.3      -48.6       -0.0       -0.0    -0.0    -0.0        0.0        0.0        0.0        0.0
"Line.LINE14"           2     -196.4       58.3        0.0        0.0     0.0     0.0
"Line.LINE15"           1      216.3      -48.6       -0.0       -0.0    -0.0    -0.0        0.0        0.0        0.0        0.0
"Line.LINE15"           2     -196.4       58.3        0.0        0.0     0.0     0.0
"Line.TOLOAD7"          1      139.6      -63.3        0.0       -0.0     0.0    -0.0        0.0        0.0        0.0        0.0
"Line.TOLOAD7"          2     -138.0       64.0       -0.0        0.0     0.0     0.0
"Line.ARNAVAGEN1_1"     1      237.4      -73.8        0.0       -0.0     0.0    -0.0        0.0        0.0        0.0        0.0
"Line.ARNAVAGEN1_1"     2     -227.2       78.7       -0.0        0.0     0.0     0.0
"Line.ARNAVAGEN1_2"     1      237.4      -73.8        0.0       -0.0     0.0    -0.0        0.0        0.0        0.0        0.0
"Line.ARNAVAGEN1_2"     2     -227.2       78.7       -0.0        0.0     0.0     0.0
"Line.ARNAVAGEN2_1"     1      147.7      -49.9        0.0       -0.0    -0.0    -0.0        0.0        0.0        0.0        0.0
"Line.ARNAVAGEN2_1"     2     -143.4       52.0       -0.0        0.0     0.0     0.0
"Line.ARNAVAGEN2_2"     1      147.7      -49.9        0.0       -0.0    -0.0    -0.0        0.0        0.0        0.0        0.0
"Line.ARNAVAGEN2_2"     2     -143.4       52.0       -0.0        0.0     0.0     0.0
"Line.TOCHURCH"         1      122.0      -42.3        0.0       -0.0    -0.0    -0.0        0.0        0.0        0.0        0.0
"Line.TOCHURCH"         2     -118.6       43.9       -0.0        0.0     0.0     0.0
"Line.ARNAVAGENNORTH"   1        3.1       -1.1        0.0       -0.0    -0.0    -0.0        0.0        0.0        0.0        0.0
"Line.ARNAVAGENNORTH"   2       -3.1        1.1       -0.0        0.0     0.0     0.0
"Line.ARNAVAGEN3"       1       46.9      -15.4        0.0       -0.0    -0.0    -0.0        0.0        0.0        0.0        0.0
"Line.ARNAVAGEN3"       2      -46.1       15.8       -0.0        0.0     0.0     0.0
"Line.JUNCTION1EAST1"   1      233.1      -66.3       -0.0       -0.0    -0.0     0.0        0.0        0.0        0.0        0.0
"Line.JUNCTION1EAST1"   2     -223.3       71.1        0.0        0.0     0.0     0.0
"Line.JUNCTION1EAST2"   1      233.1      -66.3       -0.0       -0.0    -0.0     0.0        0.0        0.0        0.0        0.0
"Line.JUNCTION1EAST2"   2     -223.3       71.1        0.0        0.0     0.0     0.0
"Line.JUNCTION1EAST3"   1      233.1      -66.3       -0.0       -0.0    -0.0     0.0        0.0        0.0        0.0        0.0
"Line.JUNCTION1EAST3"   2     -223.3       71.1        0.0        0.0     0.0     0.0
"Line.JUNCTION1EAST4"   1      233.1      -66.3       -0.0       -0.0    -0.0     0.0        0.0        0.0        0.0        0.0
"Line.JUNCTION1EAST4"   2     -223.3       71.1        0.0        0.0     0.0     0.0
"Line.JUNCTION1EAST5"   1      233.1      -66.3       -0.0       -0.0    -0.0     0.0        0.0        0.0        0.0        0.0
"Line.JUNCTION1EAST5"   2     -223.3       71.1        0.0        0.0     0.0     0.0
"Line.JUNCTION1EAST6"   1      233.1      -66.3       -0.0       -0.0    -0.0     0.0        0.0        0.0        0.0        0.0
"Line.JUNCTION1EAST6"   2     -223.3       71.1        0.0        0.0     0.0     0.0
"Line.JUNCTION1EAST7"   1      233.1      -66.3       -0.0       -0.0    -0.0     0.0        0.0        0.0        0.0        0.0
"Line.JUNCTION1EAST7"   2     -223.3       71.1        0.0        0.0     0.0     0.0
"Line.JUNCTION1EAST8"   1      233.1      -66.3       -0.0       -0.0    -0.0     0.0        0.0        0.0        0.0        0.0
"Line.JUNCTION1EAST8"   2     -223.3       71.1        0.0        0.0     0.0     0.0
"Line.JUNCTION1EAST9"   1      233.1      -66.3       -0.0       -0.0    -0.0     0.0        0.0        0.0        0.0        0.0
"Line.JUNCTION1EAST9"   2     -223.3       71.1        0.0        0.0     0.0     0.0
"Line.JUNCTION1EAST10"  1      233.1      -66.3       -0.0       -0.0    -0.0     0.0        0.0        0.0        0.0        0.0
"Line.JUNCTION1EAST10"  2     -223.3       71.1        0.0        0.0     0.0     0.0
"Line.HOUSES1_1"        1      230.8      -68.8        0.0       -0.0     0.0     0.0        0.0        0.0        0.0        0.0
"Line.HOUSES1_1"        2     -224.9       71.7       -0.0        0.0     0.0     0.0
"Line.HOUSES1_2"        1      230.8      -68.8        0.0       -0.0     0.0     0.0        0.0        0.0        0.0        0.0
"Line.HOUSES1_2"        2     -224.9       71.7       -0.0        0.0     0.0     0.0
"Line.HOUSES1_3"        1      230.8      -68.8        0.0       -0.0     0.0     0.0        0.0        0.0        0.0        0.0
"Line.HOUSES1_3"        2     -224.9       71.7       -0.0        0.0     0.0     0.0
"Line.HOUSES2_1"        1      280.4      -86.2        0.0       -0.0    -0.0    -0.0       52.9      -16.3        0.0        0.0
"Line.HOUSES2_1"        2     -272.2       90.2       -0.0        0.0     0.0     0.0
"Line.HOUSES2_2"        1      280.4      -86.2        0.0       -0.0    -0.0    -0.0       52.9      -16.3        0.0        0.0
"Line.HOUSES2_2"        2     -272.2       90.2       -0.0        0.0     0.0     0.0
"Line.JUNCTION2NORTH1"  1      300.4      -80.0       -0.0       -0.0    -0.0    -0.0       69.0      -18.4        0.0        0.0
"Line.JUNCTION2NORTH1"  2     -286.7       86.7        0.0        0.0     0.0     0.0
"Line.JUNCTION2NORTH2"  1      300.4      -80.0       -0.0       -0.0    -0.0    -0.0       69.0      -18.4        0.0        0.0
"Line.JUNCTION2NORTH2"  2     -286.7       86.7        0.0        0.0     0.0     0.0
"Line.JUNCTION2NORTH3"  1      300.4      -80.0       -0.0       -0.0    -0.0    -0.0       69.0      -18.4        0.0        0.0
"Line.JUNCTION2NORTH3"  2     -286.7       86.7        0.0        0.0     0.0     0.0
"Line.TOLOAD1_1"        1      202.7      -60.9        0.0       -0.0     0.0     0.0        0.0        0.0        0.0        0.0
"Line.TOLOAD1_1"        2     -198.7       62.8       -0.0        0.0    -0.0    -0.0
"Line.TOLOAD1_2"        1      202.7      -60.9        0.0       -0.0     0.0     0.0        0.0        0.0        0.0        0.0
"Line.TOLOAD1_2"        2     -198.7       62.8       -0.0        0.0    -0.0    -0.0
"Line.TOLOAD1_3"        1      202.7      -60.9        0.0       -0.0     0.0     0.0        0.0        0.0        0.0        0.0
"Line.TOLOAD1_3"        2     -198.7       62.8       -0.0        0.0    -0.0    -0.0
"Line.TOFOOTBALL"       1       13.5        4.5       -0.0       -0.0    -0.0    -0.0        0.0        0.0        0.0        0.0
"Line.TOFOOTBALL"       2      -13.5       -4.5        0.1        0.0     0.1     0.0
"Capacitor.CAP1"        1        0.0      -50.3        0.0       -0.0    -0.0    -0.0       -0.0       -7.0        0.0        0.0
"Capacitor.CAP1"        2        0.0        0.0        0.0        0.0     0.0     0.0
"Capacitor.CAP2"        1        0.0     -334.1       -0.0       -0.0     0.0    -0.0       -0.0      -46.5        0.0        0.0
"Capacitor.CAP2"        2        0.0        0.0        0.0        0.0     0.0     0.0
"Capacitor.CAP3"        1        0.0      -80.1        0.0       -0.0     0.0    -0.0       -0.0      -13.3        0.0        0.0
"Capacitor.CAP3"        2        0.0        0.0        0.0        0.0     0.0     0.0
"Capacitor.CAP4"        1        0.0     -359.4        0.0       -0.0     0.0    -0.0        0.0      -52.8        0.0        0.0
"Capacitor.CAP4"        2        0.0        0.0        0.0        0.0     0.0     0.0
"Capacitor.CAP5"        1       -0.0     -474.3       -0.0       -0.0    -0.0    -0.0        0.0      -86.7        0.0        0.0
"Capacitor.CAP5"        2        0.0        0.0        0.0        0.0     0.0     0.0
"Capacitor.CAP6"        1       -0.0     -160.3       -0.0       -0.0     0.0    -0.0       -0.0      -24.4        0.0        0.0
"Capacitor.CAP6"        2        0.0        0.0        0.0        0.0     0.0     0.0
"Capacitor.CAP7"        1       -0.0     -109.4        0.0       -0.0     0.0    -0.0        0.0      -22.3        0.0        0.0
"Capacitor.CAP7"        2        0.0        0.0        0.0        0.0     0.0     0.0
"Capacitor.CAP8"        1       -0.0      -27.5        0.0       -0.0    -0.0    -0.0        0.0       -5.0        0.0        0.0
"Capacitor.CAP8"        2        0.0        0.0        0.0        0.0     0.0     0.0
"Capacitor.CAP9"        1       -0.0      -82.9       -0.0       -0.0    -0.0    -0.0        0.0      -13.8        0.0        0.0
"Capacitor.CAP9"        2        0.0        0.0        0.0        0.0     0.0     0.0
"Capacitor.CAP10"       1        0.0     -165.2        0.0       -0.0     0.0    -0.0       -0.0      -27.3        0.0        0.0
"Capacitor.CAP10"       2        0.0        0.0        0.0        0.0     0.0     0.0
"Capacitor.CAP11"       1        0.0      -31.0       -0.0       -0.0    -0.0    -0.0        0.0       -4.7        0.0        0.0
"Capacitor.CAP11"       2        0.0        0.0        0.0        0.0     0.0     0.0
"Capacitor.CAP12"       1        0.0       -2.1        0.0       -0.0     0.0    -0.0       -0.0       -0.3        0.0        0.0
"Capacitor.CAP12"       2        0.0        0.0        0.0        0.0     0.0     0.0
"Load.LOAD1"            1       77.9       25.6        0.0        0.0     0.0     0.0
"Load.LOAD2"            1      518.3      170.4        0.0        0.0     0.0     0.0
"Load.LOAD3"            1      113.9       37.5        0.0        0.0    -0.0    -0.0
"Load.LOAD4"            1      544.4      178.9        0.0        0.0    -0.0    -0.0
"Load.LOAD5"            1      639.7      210.3        0.0        0.0     0.0     0.0
"Load.LOAD6"            1      238.5       78.4        0.0        0.0     0.0     0.0
"Load.LOAD7"            1      138.0       45.4        0.0        0.0    -0.0    -0.0
"Load.LOAD8"            1       37.1       12.2        0.0        0.0    -0.0    -0.0
"Load.LOAD9"            1      118.6       39.0        0.0        0.0    -0.0    -0.0
"Load.LOAD10"           1      236.8       77.8        0.0        0.0    -0.0    -0.0
"Load.LOAD11"           1       46.1       15.1        0.0        0.0    -0.0    -0.0
"Load.LOAD12"           1        3.1        1.0        0.0        0.0    -0.0    -0.0
"Load.LOAD13"           1        0.0        0.0        0.0        0.0     0.0     0.0

Total Circuit Losses =  544.7 +j  661.8
